--------------------------------------------------------------------------------
-  Delft3D
-  Deltares, Delft3D-WAVE Version 3.05.01.7200, Jun 12 2017, 14:20:17
-  Open source
-
--------------------------------------------------------------------------------
*** MESSAGE: Delft3D-WAVE runs stand alone
SWAN_INPUT: Meteofiles specified in group General used for domain 1
 Done reading input
  Initialising grids and grid mappings
Error in meteo module: File wind_skagit.amu does not exist
Stopping WAVE computation
48 hour file doesn't exist yet for 20170726, 18Z
48 hour file doesn't exist yet for 20170726, 12Z
Current offset to GMT is 7 (method1)
Current offset to GMT is 7 (method2)
Dowloading hrdps forecast hour 00
Dowloading hrdps forecast hour 01
Dowloading hrdps forecast hour 02
Dowloading hrdps forecast hour 03
Dowloading hrdps forecast hour 04
Dowloading hrdps forecast hour 05
Dowloading hrdps forecast hour 06
Dowloading hrdps forecast hour 07
Dowloading hrdps forecast hour 08
Dowloading hrdps forecast hour 09
Dowloading hrdps forecast hour 10
Dowloading hrdps forecast hour 11
Dowloading hrdps forecast hour 12
Dowloading hrdps forecast hour 13
Dowloading hrdps forecast hour 14
Dowloading hrdps forecast hour 15
Dowloading hrdps forecast hour 16
Dowloading hrdps forecast hour 17
Dowloading hrdps forecast hour 18
Dowloading hrdps forecast hour 19
Dowloading hrdps forecast hour 20
Dowloading hrdps forecast hour 21
Dowloading hrdps forecast hour 22
Dowloading hrdps forecast hour 23
Dowloading hrdps forecast hour 24
Dowloading hrdps forecast hour 25
Dowloading hrdps forecast hour 26
Dowloading hrdps forecast hour 27
Dowloading hrdps forecast hour 28
Dowloading hrdps forecast hour 29
Dowloading hrdps forecast hour 30
Dowloading hrdps forecast hour 31
Dowloading hrdps forecast hour 32
Dowloading hrdps forecast hour 33
Dowloading hrdps forecast hour 34
Dowloading hrdps forecast hour 35
Dowloading hrdps forecast hour 36
Dowloading hrdps forecast hour 37
Dowloading hrdps forecast hour 38
Dowloading hrdps forecast hour 39
Dowloading hrdps forecast hour 40
Dowloading hrdps forecast hour 41
Dowloading hrdps forecast hour 42
Dowloading hrdps forecast hour 43
Dowloading hrdps forecast hour 44
Dowloading hrdps forecast hour 45
Dowloading hrdps forecast hour 46
Dowloading hrdps forecast hour 47
Making wind plots for BBay
Syncing google drive BellinghamBay Folder
Writing D3D wind files to ../ModelRuns/skagit_wave_50m/wind_skagit.amu
('Nx, Ny', 415, 490)
Beginning D3D model run
Plotting
Entering plotting function for BBay
('Grid(Nx, Ny): ', 415, 490)
